8
Scan point 1/36 - Rel. E = 0.179 kcal/mol
C     -0.354304  0.291799 -0.327050
C      1.181256  0.219535 -0.333121
H     -0.719096  1.330858 -0.143183
F     -0.826952 -0.511335  0.660171
H     -0.768304 -0.051592 -1.303808
F      1.644901  0.645539  0.869662
H      1.602736  0.869097 -1.135517
H      1.545801 -0.821784 -0.504308
8
Scan point 2/36 - Rel. E = 0.535 kcal/mol
C     -0.354304  0.291799 -0.327050
C      1.181256  0.219535 -0.333121
H     -0.719096  1.330858 -0.143183
F     -0.826952 -0.511335  0.660171
H     -0.768304 -0.051592 -1.303808
F      1.634983  0.429808  0.929040
H      1.609301  0.997838 -1.007240
H      1.547225 -0.776816 -0.679378
8
Scan point 3/36 - Rel. E = 1.014 kcal/mol
C     -0.355744  0.291634 -0.326766
C      1.182340  0.219393 -0.333016
H     -0.718765  1.330563 -0.142408
F     -0.826596 -0.511027  0.659782
H     -0.768852 -0.051275 -1.303394
F      1.624210  0.207021  0.949131
H      1.614782  1.101815 -0.858764
H      1.549332 -0.702474 -0.843552
8
Scan point 4/36 - Rel. E = 1.545 kcal/mol
C     -0.356457  0.291738 -0.326848
C      1.183138  0.219373 -0.333040
H     -0.718321  1.330370 -0.141640
F     -0.826681 -0.511112  0.659889
H     -0.769307 -0.050934 -1.303035
F      1.613691 -0.015854  0.931351
H      1.619692  1.178478 -0.694114
H      1.553155 -0.600957 -0.991956
8
Scan point 5/36 - Rel. E = 2.033 kcal/mol
C     -0.357202  0.291677 -0.326730
C      1.183905  0.219369 -0.333082
H     -0.717969  1.330259 -0.140961
F     -0.826703 -0.511046  0.659812
H     -0.770277 -0.050632 -1.302661
F      1.603662 -0.232053  0.874453
H      1.623457  1.225586 -0.519051
H      1.558127 -0.475159 -1.121072
8
Scan point 6/36 - Rel. E = 2.366 kcal/mol
C     -0.358263  0.291363 -0.326291
C      1.186363  0.219913 -0.333879
H     -0.714724  1.330051 -0.136564
F     -0.828100 -0.511276  0.660170
H     -0.780178 -0.049220 -1.299136
F      1.599094 -0.434302  0.779585
H      1.635060  1.239275 -0.339930
H      1.561690 -0.331226 -1.226824
8
Scan point 7/36 - Rel. E = 2.498 kcal/mol
C     -0.358263  0.291363 -0.326291
C      1.186363  0.219913 -0.333879
H     -0.714724  1.330051 -0.136564
F     -0.828100 -0.511276  0.660170
H     -0.780178 -0.049220 -1.299136
F      1.589965 -0.618164  0.652468
H      1.635248  1.224174 -0.159449
H      1.568826 -0.168566 -1.305877
8
Scan point 8/36 - Rel. E = 2.392 kcal/mol
C     -0.358263  0.291363 -0.326291
C      1.186363  0.219913 -0.333879
H     -0.714724  1.330051 -0.136564
F     -0.828100 -0.511276  0.660170
H     -0.780178 -0.049220 -1.299136
F      1.581837 -0.777174  0.495315
H      1.633972  1.177996  0.015673
H      1.576626  0.005330 -1.355458
8
Scan point 9/36 - Rel. E = 2.067 kcal/mol
C     -0.357440  0.291409 -0.326395
C      1.185499  0.219917 -0.333832
H     -0.714131  1.330279 -0.137079
F     -0.828059 -0.511326  0.660227
H     -0.780737 -0.049611 -1.298981
F      1.574537 -0.906792  0.313128
H      1.631840  1.101671  0.180684
H      1.584400  0.185521 -1.374050
8
Scan point 10/36 - Rel. E = 1.563 kcal/mol
C     -0.356935  0.292282 -0.327469
C      1.182444  0.218802 -0.332317
H     -0.704849  1.334141 -0.145315
F     -0.825509 -0.511084  0.659785
H     -0.786895 -0.055326 -1.296283
F      1.558492 -1.005625  0.113867
H      1.631889  0.989616  0.337193
H      1.584459  0.371505 -1.359393
8
Scan point 11/36 - Rel. E = 1.032 kcal/mol
C     -0.356935  0.292282 -0.327469
C      1.182444  0.218802 -0.332317
H     -0.704849  1.334141 -0.145315
F     -0.825509 -0.511084  0.659785
H     -0.786895 -0.055326 -1.296283
F      1.554981 -1.064932 -0.102195
H      1.626161  0.861236  0.464421
H      1.592971  0.546824 -1.313994
8
Scan point 12/36 - Rel. E = 0.549 kcal/mol
C     -0.355689  0.292470 -0.327767
C      1.181379  0.218868 -0.332332
H     -0.704444  1.334472 -0.145511
F     -0.825690 -0.511338  0.660099
H     -0.786713 -0.055367 -1.296596
F      1.553077 -1.086793 -0.325225
H      1.619407  0.712426  0.567684
H      1.601211  0.711441 -1.238881
8
Scan point 13/36 - Rel. E = 0.192 kcal/mol
C     -0.354979  0.292422 -0.327753
C      1.180630  0.218891 -0.332314
H     -0.704283  1.334674 -0.145519
F     -0.825651 -0.511313  0.660067
H     -0.786630 -0.055239 -1.296897
F      1.553207 -1.068638 -0.548704
H      1.611674  0.548592  0.643400
H      1.608489  0.860873 -1.136300
8
Scan point 14/36 - Rel. E = 0.009 kcal/mol
C     -0.354979  0.292422 -0.327753
C      1.180630  0.218891 -0.332314
H     -0.704283  1.334674 -0.145519
F     -0.825651 -0.511313  0.660067
H     -0.786630 -0.055239 -1.296897
F      1.555272 -1.012052 -0.765662
H      1.603442  0.373825  0.689325
H      1.615052  0.990060 -1.009199
8
Scan point 15/36 - Rel. E = 0.004 kcal/mol
C     -0.353900  0.292540 -0.327959
C      1.179890  0.219025 -0.332430
H     -0.704037  1.334582 -0.145130
F     -0.825990 -0.511565  0.660389
H     -0.786948 -0.054728 -1.297258
F      1.559649 -0.919257 -0.969936
H      1.595528  0.194114  0.704087
H      1.620706  1.094833 -0.862130
8
Scan point 16/36 - Rel. E = 0.125 kcal/mol
C     -0.352497  0.291408 -0.326692
C      1.181169  0.220319 -0.334051
H     -0.706464  1.331695 -0.138731
F     -0.828672 -0.511726  0.660742
H     -0.791694 -0.047593 -1.298414
F      1.573905 -0.788487 -1.155553
H      1.596056  0.024661  0.686546
H      1.626579  1.172662 -0.704832
8
Scan point 17/36 - Rel. E = 0.344 kcal/mol
C     -0.352497  0.291408 -0.326692
C      1.181169  0.220319 -0.334051
H     -0.706464  1.331695 -0.138731
F     -0.828672 -0.511726  0.660742
H     -0.791694 -0.047593 -1.298414
F      1.580426 -0.631301 -1.314935
H      1.587737 -0.150039  0.640407
H      1.629696  1.221856 -0.530454
8
Scan point 18/36 - Rel. E = 0.573 kcal/mol
C     -0.353423  0.291646 -0.326921
C      1.182056  0.220215 -0.333980
H     -0.706623  1.331577 -0.138039
F     -0.828633 -0.511861  0.660901
H     -0.792437 -0.047056 -1.297613
F      1.587931 -0.449308 -1.444964
H      1.580370 -0.313795  0.563714
H      1.631794  1.239708 -0.351082
8
Scan point 19/36 - Rel. E = 0.748 kcal/mol
C     -0.353423  0.291646 -0.326921
C      1.182056  0.220215 -0.333980
H     -0.706623  1.331577 -0.138039
F     -0.828633 -0.511861  0.660901
H     -0.792437 -0.047056 -1.297613
F      1.596899 -0.247062 -1.540976
H      1.573001 -0.462008  0.460633
H      1.632012  1.226544 -0.170381
8
Scan point 20/36 - Rel. E = 0.814 kcal/mol
C     -0.354728  0.291934 -0.327186
C      1.183040  0.219983 -0.333763
H     -0.707319  1.331480 -0.137556
F     -0.828312 -0.511918  0.660949
H     -0.793330 -0.046935 -1.297064
F      1.605797 -0.031618 -1.600621
H      1.566802 -0.590169  0.332755
H      1.631482  1.181940  0.004650
8
Scan point 21/36 - Rel. E = 0.767 kcal/mol
C     -0.355730  0.292280 -0.327538
C      1.183512  0.219673 -0.333421
H     -0.708139  1.331582 -0.137243
F     -0.827783 -0.511953  0.660959
H     -0.794123 -0.046973 -1.296763
F      1.614863  0.190925 -1.621813
H      1.561262 -0.694394  0.184737
H      1.629433  1.107768  0.169615
8
Scan point 22/36 - Rel. E = 0.623 kcal/mol
C     -0.358942  0.293931 -0.329316
C      1.183244  0.217902 -0.331290
H     -0.712535  1.332966 -0.136859
F     -0.824302 -0.511833  0.660607
H     -0.796748 -0.047621 -1.296898
F      1.617798  0.412465 -1.603759
H      1.554650 -0.773562  0.020401
H      1.627924  1.005277  0.319888
8
Scan point 23/36 - Rel. E = 0.458 kcal/mol
C     -0.358822  0.294043 -0.329458
C      1.182756  0.217746 -0.331075
H     -0.712945  1.333165 -0.137266
F     -0.823934 -0.511790  0.660533
H     -0.796567 -0.047657 -1.297352
F      1.627827  0.629637 -1.546870
H      1.551480 -0.820418 -0.153512
H      1.622058  0.879550  0.450728
8
Scan point 24/36 - Rel. E = 0.309 kcal/mol
C     -0.361016  0.295704 -0.331308
C      1.180839  0.215780 -0.328613
H     -0.716124  1.335758 -0.139506
F     -0.819823 -0.511484  0.659921
H     -0.794480 -0.046843 -1.299658
F      1.629759  0.832760 -1.452230
H      1.543646 -0.838430 -0.331305
H      1.614729  0.731081  0.560680
8
Scan point 25/36 - Rel. E = 0.254 kcal/mol
C     -0.361016  0.295704 -0.331308
C      1.180839  0.215780 -0.328613
H     -0.716124  1.335758 -0.139506
F     -0.819823 -0.511484  0.659921
H     -0.794480 -0.046843 -1.299658
F      1.639140  1.018049 -1.324120
H      1.544803 -0.822165 -0.510807
H      1.606180  0.568847  0.640442
8
Scan point 26/36 - Rel. E = 0.301 kcal/mol
C     -0.361016  0.295704 -0.331308
C      1.180839  0.215780 -0.328613
H     -0.716124  1.335758 -0.139506
F     -0.819823 -0.511484  0.659921
H     -0.794480 -0.046843 -1.299658
F      1.647170  1.178310 -1.165740
H      1.547551 -0.775019 -0.684752
H      1.597093  0.395242  0.690781
8
Scan point 27/36 - Rel. E = 0.437 kcal/mol
C     -0.361016  0.295704 -0.331308
C      1.180839  0.215780 -0.328613
H     -0.716124  1.335758 -0.139506
F     -0.819823 -0.511484  0.659921
H     -0.794480 -0.046843 -1.299658
F      1.653607  1.308673 -0.981902
H      1.551806 -0.698423 -0.847853
H      1.587744  0.215542  0.710168
8
Scan point 28/36 - Rel. E = 0.613 kcal/mol
C     -0.359768  0.295513 -0.331155
C      1.180191  0.216088 -0.328942
H     -0.716440  1.336328 -0.139185
F     -0.820423 -0.511601  0.660097
H     -0.794031 -0.046157 -1.299162
F      1.659537  1.405348 -0.778593
H      1.557422 -0.594444 -0.994640
H      1.579518  0.035298  0.698312
8
Scan point 29/36 - Rel. E = 0.75 kcal/mol
C     -0.356813  0.293546 -0.328985
C      1.181588  0.218241 -0.331596
H     -0.719686  1.334496 -0.137868
F     -0.824775 -0.511788  0.660581
H     -0.792194 -0.044366 -1.296086
F      1.672320  1.463969 -0.564492
H      1.563979 -0.466378 -1.121602
H      1.579925 -0.139819  0.650702
8
Scan point 30/36 - Rel. E = 0.818 kcal/mol
C     -0.356813  0.293546 -0.328985
C      1.181588  0.218241 -0.331596
H     -0.719686  1.334496 -0.137868
F     -0.824775 -0.511788  0.660581
H     -0.792194 -0.044366 -1.296086
F      1.673728  1.484973 -0.340739
H      1.570999 -0.319380 -1.225105
H      1.571706 -0.305174  0.577048
8
Scan point 31/36 - Rel. E = 0.749 kcal/mol
C     -0.354267  0.291789 -0.327040
C      1.183150  0.220242 -0.334078
H     -0.727058  1.328014 -0.142167
F     -0.828883 -0.512031  0.661118
H     -0.787424 -0.051453 -1.295358
F      1.683846  1.465985 -0.121085
H      1.574101 -0.151896 -1.309677
H      1.577161 -0.454458  0.463734
8
Scan point 32/36 - Rel. E = 0.59 kcal/mol
C     -0.354267  0.291789 -0.327040
C      1.183150  0.220242 -0.334078
H     -0.727058  1.328014 -0.142167
F     -0.828883 -0.512031  0.661118
H     -0.787424 -0.051453 -1.295358
F      1.682206  1.409405  0.095775
H      1.581998  0.022382 -1.356279
H      1.570593 -0.583205  0.337733
8
Scan point 33/36 - Rel. E = 0.349 kcal/mol
C     -0.353200  0.291743 -0.327050
C      1.181238  0.219984 -0.333655
H     -0.724869  1.330981 -0.148525
F     -0.828038 -0.511727  0.660705
H     -0.776152 -0.056833 -1.297378
F      1.676767  1.315389  0.299872
H      1.578636  0.206234 -1.374741
H      1.561676 -0.693379  0.187028
8
Scan point 34/36 - Rel. E = 0.13 kcal/mol
C     -0.353200  0.291743 -0.327050
C      1.181238  0.219984 -0.333655
H     -0.724869  1.330981 -0.148525
F     -0.828038 -0.511727  0.660705
H     -0.776152 -0.056833 -1.297378
F      1.671612  1.188175  0.484244
H      1.587135  0.386445 -1.358112
H      1.557371 -0.770401  0.023747
8
Scan point 35/36 - Rel. E = 0.0 kcal/mol
C     -0.353200  0.291743 -0.327050
C      1.181238  0.219984 -0.333655
H     -0.724869  1.330981 -0.148525
F     -0.828038 -0.511727  0.660705
H     -0.776152 -0.056833 -1.297378
F      1.664944  1.030917  0.643707
H      1.595505  0.561027 -1.310408
H      1.554399 -0.817928 -0.150448
8
Scan point 36/36 - Rel. E = 0.014 kcal/mol
C     -0.353925  0.291592 -0.326826
C      1.181501  0.219825 -0.333481
H     -0.724401  1.330417 -0.148448
F     -0.827576 -0.511417  0.660307
H     -0.775777 -0.056991 -1.298049
F      1.656104  0.847881  0.772873
H      1.602589  0.724678 -1.233817
H      1.551915 -0.834238 -0.330195
