10
Structure 1 - REFINED - Rel. E. = 0.0 kcal/mol
C      0.332011  0.808711  0.893624
H      0.743200 -0.167343  1.159508
H      0.740241  1.164199 -0.054592
H     -0.758503  0.779339  0.861422
Cl      0.804039  1.962327  2.158420
C      0.356757 -1.519019 -1.824895
O     -0.192875 -2.322579 -2.523496
H      1.400801 -1.217935 -1.785323
O     -0.332011 -0.808711 -0.893624
H     -1.298678 -1.014061 -0.854307
