8
TS candidate 1 - TS_guesses - Rel. E. = 0.0 kcal/mol
C     -0.731771 -0.128787 -0.676334
C      0.737011  0.346587 -0.588403
H     -1.395863  0.677521 -1.064643
F     -1.154655 -0.473499  0.564805
H     -0.827748 -1.012270 -1.347662
F      1.149416  0.255699  0.699932
H      0.837412  1.403479 -0.925098
H      1.405185 -0.284717 -1.218461
8
TS candidate 2 - TS_guesses - Rel. E. = 0.355 kcal/mol
C     -0.470552 -0.552383 -0.380173
C      0.472802  0.647046 -0.169626
H     -0.662860 -0.734399 -1.462658
F     -1.657105 -0.286432  0.226874
H     -0.056988 -1.495206  0.054123
F      1.654856  0.191769  0.322925
H      0.054365  1.390573  0.551968
H      0.673539  1.180621 -1.127195
